  
       XFOIL         Version 6.99
  
 Calculated polar for: NACA 2312                                       
  
 1 1 Reynolds number fixed          Mach number fixed         
  
 xtrf =   0.200 (top)        1.000 (bottom)  
 Mach =   0.000     Re =     1.500 e 6     Ncrit =   9.000
  
   alpha    CL        CD       CDp       CM     Top_Xtr  Bot_Xtr
  ------ -------- --------- --------- -------- -------- --------
 -10.000  -0.8884   0.01518   0.00809  -0.0452   0.2000   0.0179
  -9.000  -0.7850   0.01388   0.00658  -0.0441   0.2000   0.0202
  -8.000  -0.6788   0.01286   0.00540  -0.0432   0.2000   0.0232
  -7.000  -0.5713   0.01187   0.00429  -0.0425   0.2000   0.0278
  -6.000  -0.4623   0.01104   0.00339  -0.0419   0.2000   0.0353
  -5.000  -0.3516   0.01041   0.00272  -0.0416   0.2000   0.0468
  -4.000  -0.2402   0.00986   0.00220  -0.0414   0.2000   0.0681
  -3.000  -0.1282   0.00940   0.00183  -0.0413   0.2000   0.1068
  -2.000  -0.0161   0.00894   0.00158  -0.0413   0.2000   0.1794
  -1.000   0.0946   0.00823   0.00140  -0.0412   0.2000   0.3549
   0.000   0.2040   0.00746   0.00138  -0.0408   0.2000   0.6167
   1.000   0.3138   0.00708   0.00150  -0.0401   0.2000   0.7941
   2.000   0.4194   0.00695   0.00175  -0.0380   0.2000   0.9320
   3.000   0.5435   0.00721   0.00204  -0.0401   0.2000   0.9878
   4.000   0.6848   0.00754   0.00235  -0.0466   0.2000   0.9969
   5.000   0.8040   0.00784   0.00269  -0.0483   0.2000   1.0000
   6.000   0.9035   0.00818   0.00310  -0.0457   0.2000   1.0000
   7.000   0.9987   0.00923   0.00391  -0.0427   0.1455   1.0000
   8.000   1.0921   0.01080   0.00512  -0.0399   0.0801   1.0000
   9.000   1.1866   0.01232   0.00645  -0.0374   0.0477   1.0000
  10.000   1.2794   0.01383   0.00791  -0.0348   0.0331   1.0000
  11.000   1.3663   0.01557   0.00966  -0.0314   0.0248   1.0000
  12.000   1.4458   0.01747   0.01165  -0.0271   0.0204   1.0000
  13.000   1.5043   0.01987   0.01418  -0.0199   0.0173   1.0000
  14.000   1.5567   0.02284   0.01733  -0.0134   0.0155   1.0000
  15.000   1.5892   0.02786   0.02260  -0.0074   0.0139   1.0000
