  
       XFOIL         Version 6.99
  
 Calculated polar for: NACA 2312                                       
  
 1 1 Reynolds number fixed          Mach number fixed         
  
 xtrf =   0.050 (top)        1.000 (bottom)  
 Mach =   0.000     Re =     1.500 e 6     Ncrit =   9.000
  
   alpha    CL        CD       CDp       CM     Top_Xtr  Bot_Xtr
  ------ -------- --------- --------- -------- -------- --------
 -10.000  -0.8887   0.01528   0.00807  -0.0452   0.0500   0.0179
  -9.000  -0.7854   0.01401   0.00657  -0.0440   0.0500   0.0201
  -8.000  -0.6794   0.01302   0.00540  -0.0431   0.0500   0.0232
  -7.000  -0.5722   0.01208   0.00431  -0.0424   0.0500   0.0278
  -6.000  -0.4636   0.01129   0.00342  -0.0417   0.0500   0.0352
  -5.000  -0.3533   0.01072   0.00277  -0.0413   0.0500   0.0466
  -4.000  -0.2425   0.01024   0.00228  -0.0411   0.0500   0.0677
  -3.000  -0.1310   0.00985   0.00195  -0.0409   0.0500   0.1063
  -2.000  -0.0196   0.00948   0.00174  -0.0408   0.0500   0.1777
  -1.000   0.0904   0.00890   0.00161  -0.0406   0.0500   0.3455
   0.000   0.1987   0.00822   0.00165  -0.0400   0.0500   0.6127
   1.000   0.3073   0.00797   0.00184  -0.0392   0.0500   0.7913
   2.000   0.4112   0.00797   0.00217  -0.0368   0.0500   0.9329
   3.000   0.5351   0.00840   0.00255  -0.0391   0.0500   0.9888
   4.000   0.6758   0.00893   0.00297  -0.0456   0.0500   0.9978
   5.000   0.7862   0.00944   0.00343  -0.0456   0.0500   1.0000
   6.000   0.8828   0.01000   0.00397  -0.0426   0.0500   1.0000
   7.000   0.9834   0.01065   0.00463  -0.0405   0.0500   1.0000
   8.000   1.0858   0.01139   0.00544  -0.0390   0.0500   1.0000
   9.000   1.1866   0.01232   0.00645  -0.0374   0.0477   1.0000
  10.000   1.2794   0.01383   0.00791  -0.0348   0.0331   1.0000
  11.000   1.3663   0.01557   0.00966  -0.0314   0.0248   1.0000
  12.000   1.4458   0.01747   0.01165  -0.0271   0.0204   1.0000
  13.000   1.5043   0.01987   0.01418  -0.0199   0.0173   1.0000
  14.000   1.5567   0.02284   0.01733  -0.0134   0.0155   1.0000
  15.000   1.5892   0.02786   0.02260  -0.0074   0.0139   1.0000
