  
       XFOIL         Version 6.99
  
 Calculated polar for: NACA 4412                                       
  
 1 1 Reynolds number fixed          Mach number fixed         
  
 xtrf =   0.400 (top)        1.000 (bottom)  
 Mach =   0.000     Re =     1.500 e 6     Ncrit =   9.000
  
   alpha    CL        CD       CDp       CM     Top_Xtr  Bot_Xtr
  ------ -------- --------- --------- -------- -------- --------
 -10.000  -0.6591   0.01496   0.00860  -0.0998   0.4000   0.0169
  -9.000  -0.5533   0.01328   0.00668  -0.0994   0.4000   0.0190
  -8.000  -0.4439   0.01214   0.00536  -0.0992   0.4000   0.0215
  -7.000  -0.3327   0.01122   0.00431  -0.0992   0.4000   0.0249
  -6.000  -0.2208   0.01031   0.00333  -0.0993   0.4000   0.0308
  -5.000  -0.1076   0.00967   0.00265  -0.0995   0.4000   0.0392
  -4.000   0.0062   0.00913   0.00212  -0.0998   0.4000   0.0535
  -3.000   0.1204   0.00867   0.00175  -0.1001   0.4000   0.0801
  -2.000   0.2348   0.00830   0.00152  -0.1005   0.4000   0.1258
  -1.000   0.3491   0.00796   0.00141  -0.1010   0.4000   0.1992
   0.000   0.4634   0.00766   0.00142  -0.1015   0.4000   0.3091
   1.000   0.5753   0.00689   0.00156  -0.1019   0.4000   0.6441
   2.000   0.6929   0.00627   0.00180  -0.1027   0.4000   1.0000
   3.000   0.8044   0.00648   0.00200  -0.1026   0.4000   1.0000
   4.000   0.9164   0.00673   0.00227  -0.1026   0.4000   1.0000
   5.000   1.0274   0.00705   0.00265  -0.1025   0.3960   1.0000
   6.000   1.1314   0.00786   0.00323  -0.1014   0.3366   1.0000
   7.000   1.2266   0.00927   0.00421  -0.0988   0.2460   1.0000
   8.000   1.3093   0.01146   0.00577  -0.0944   0.1341   1.0000
   9.000   1.3869   0.01364   0.00755  -0.0892   0.0671   1.0000
  10.000   1.4567   0.01558   0.00937  -0.0826   0.0405   1.0000
  11.000   1.5195   0.01777   0.01157  -0.0754   0.0288   1.0000
  12.000   1.5777   0.02041   0.01429  -0.0687   0.0230   1.0000
  13.000   1.6261   0.02398   0.01800  -0.0620   0.0189   1.0000
  14.000   1.6626   0.02893   0.02312  -0.0557   0.0162   1.0000
  15.000   1.6902   0.03531   0.02972  -0.0507   0.0144   1.0000
