  
       XFOIL         Version 6.99
  
 Calculated polar for: NACA 2312                                       
  
 1 1 Reynolds number fixed          Mach number fixed         
  
 xtrf =   0.100 (top)        1.000 (bottom)  
 Mach =   0.000     Re =     1.500 e 6     Ncrit =   9.000
  
   alpha    CL        CD       CDp       CM     Top_Xtr  Bot_Xtr
  ------ -------- --------- --------- -------- -------- --------
 -10.000  -0.8887   0.01527   0.00808  -0.0452   0.1000   0.0179
  -9.000  -0.7854   0.01400   0.00658  -0.0440   0.1000   0.0201
  -8.000  -0.6794   0.01300   0.00541  -0.0431   0.1000   0.0232
  -7.000  -0.5721   0.01205   0.00431  -0.0424   0.1000   0.0278
  -6.000  -0.4634   0.01125   0.00342  -0.0418   0.1000   0.0352
  -5.000  -0.3530   0.01066   0.00277  -0.0414   0.1000   0.0467
  -4.000  -0.2420   0.01016   0.00227  -0.0411   0.1000   0.0678
  -3.000  -0.1304   0.00975   0.00192  -0.0410   0.1000   0.1064
  -2.000  -0.0188   0.00935   0.00170  -0.0409   0.1000   0.1781
  -1.000   0.0915   0.00872   0.00155  -0.0407   0.1000   0.3481
   0.000   0.2001   0.00800   0.00157  -0.0403   0.1000   0.6139
   1.000   0.3091   0.00770   0.00173  -0.0395   0.1000   0.7921
   2.000   0.4137   0.00765   0.00203  -0.0372   0.1000   0.9326
   3.000   0.5378   0.00801   0.00237  -0.0394   0.1000   0.9884
   5.000   0.7925   0.00887   0.00314  -0.0466   0.1000   1.0000
   6.000   0.8903   0.00933   0.00362  -0.0437   0.1000   1.0000
   7.000   0.9918   0.00985   0.00421  -0.0417   0.1000   1.0000
   8.000   1.0921   0.01080   0.00512  -0.0399   0.0801   1.0000
   9.000   1.1866   0.01232   0.00645  -0.0374   0.0477   1.0000
  10.000   1.2794   0.01383   0.00791  -0.0348   0.0331   1.0000
  11.000   1.3663   0.01557   0.00966  -0.0314   0.0248   1.0000
  12.000   1.4458   0.01747   0.01165  -0.0271   0.0204   1.0000
  13.000   1.5043   0.01987   0.01418  -0.0199   0.0173   1.0000
  14.000   1.5567   0.02284   0.01733  -0.0134   0.0155   1.0000
  15.000   1.5892   0.02786   0.02260  -0.0074   0.0139   1.0000
