  
       XFOIL         Version 6.99
  
 Calculated polar for: NACA 2312                                       
  
 1 1 Reynolds number fixed          Mach number fixed         
  
 xtrf =   0.400 (top)        1.000 (bottom)  
 Mach =   0.000     Re =     1.500 e 6     Ncrit =   9.000
  
   alpha    CL        CD       CDp       CM     Top_Xtr  Bot_Xtr
  ------ -------- --------- --------- -------- -------- --------
 -10.000  -0.8867   0.01477   0.00808  -0.0453   0.4000   0.0179
  -9.000  -0.7829   0.01341   0.00654  -0.0442   0.4000   0.0202
  -8.000  -0.6760   0.01234   0.00537  -0.0435   0.4000   0.0232
  -7.000  -0.5681   0.01128   0.00421  -0.0428   0.4000   0.0280
  -6.000  -0.4584   0.01039   0.00331  -0.0424   0.4000   0.0355
  -5.000  -0.3471   0.00969   0.00261  -0.0421   0.4000   0.0473
  -4.000  -0.2349   0.00908   0.00207  -0.0421   0.4000   0.0687
  -3.000  -0.1221   0.00854   0.00167  -0.0421   0.4000   0.1083
  -2.000  -0.0090   0.00800   0.00139  -0.0422   0.4000   0.1819
  -1.000   0.1023   0.00717   0.00117  -0.0422   0.4000   0.3693
   0.000   0.2129   0.00635   0.00113  -0.0420   0.4000   0.6221
   1.000   0.3237   0.00590   0.00123  -0.0414   0.4000   0.7975
   2.000   0.4308   0.00571   0.00146  -0.0396   0.4000   0.9306
   3.000   0.5526   0.00605   0.00176  -0.0412   0.3735   0.9867
   4.000   0.6918   0.00657   0.00210  -0.0473   0.3343   0.9963
   5.000   0.8129   0.00707   0.00245  -0.0497   0.2929   1.0000
   6.000   0.9069   0.00789   0.00299  -0.0462   0.2291   1.0000
   7.000   0.9987   0.00923   0.00391  -0.0427   0.1455   1.0000
   8.000   1.0921   0.01080   0.00512  -0.0399   0.0801   1.0000
   9.000   1.1866   0.01232   0.00645  -0.0374   0.0477   1.0000
  10.000   1.2794   0.01383   0.00791  -0.0348   0.0331   1.0000
  11.000   1.3663   0.01557   0.00966  -0.0314   0.0248   1.0000
  12.000   1.4458   0.01747   0.01165  -0.0271   0.0204   1.0000
  13.000   1.5043   0.01987   0.01418  -0.0199   0.0173   1.0000
  14.000   1.5567   0.02284   0.01733  -0.0134   0.0155   1.0000
  15.000   1.5892   0.02786   0.02260  -0.0074   0.0139   1.0000
