  
       XFOIL         Version 6.99
  
 Calculated polar for: NACA 2312                                       
  
 1 1 Reynolds number fixed          Mach number fixed         
  
 xtrf =   0.100 (top)        1.000 (bottom)  
 Mach =   0.000     Re =     0.150 e 6     Ncrit =   9.000
  
   alpha    CL        CD       CDp       CM     Top_Xtr  Bot_Xtr
  ------ -------- --------- --------- -------- -------- --------
 -10.000  -0.3592   0.09853   0.09170  -0.0301   0.1000   0.1033
  -9.000  -0.3700   0.08136   0.07457  -0.0349   0.1000   0.1136
  -8.000  -0.5131   0.06665   0.05963  -0.0473   0.1000   0.1151
  -7.000  -0.5388   0.02974   0.01906  -0.0485   0.1000   0.0694
  -6.000  -0.4425   0.02415   0.01273  -0.0464   0.1000   0.0834
  -5.000  -0.3395   0.02086   0.00903  -0.0446   0.1000   0.1076
  -4.000  -0.2376   0.01823   0.00647  -0.0428   0.1000   0.1550
  -3.000  -0.1387   0.01599   0.00474  -0.0407   0.1000   0.2764
  -2.000  -0.0555   0.01367   0.00439  -0.0337   0.1000   0.7581
  -1.000   0.0700   0.01408   0.00467  -0.0326   0.1000   0.9405
   0.000   0.2828   0.01448   0.00442  -0.0531   0.1000   1.0000
   1.000   0.3671   0.01444   0.00410  -0.0494   0.1000   1.0000
   2.000   0.4556   0.01474   0.00420  -0.0455   0.1000   1.0000
   3.000   0.5475   0.01525   0.00460  -0.0420   0.1000   1.0000
   4.000   0.6416   0.01591   0.00525  -0.0388   0.1000   1.0000
   5.000   0.7379   0.01671   0.00616  -0.0360   0.1000   1.0000
   6.000   0.8346   0.01767   0.00732  -0.0335   0.1000   1.0000
   7.000   0.9300   0.01882   0.00877  -0.0310   0.1000   1.0000
   8.000   1.0221   0.02021   0.01059  -0.0280   0.1000   1.0000
   9.000   1.1077   0.02200   0.01293  -0.0243   0.1000   1.0000
  10.000   1.1637   0.02571   0.01720  -0.0163   0.1000   1.0000
  11.000   1.2007   0.03127   0.02289  -0.0070   0.0799   1.0000
  12.000   1.2489   0.03769   0.02941  -0.0011   0.0650   1.0000
  13.000   1.2930   0.04507   0.03720   0.0039   0.0557   1.0000
  14.000   1.3066   0.05387   0.04663   0.0088   0.0498   1.0000
  15.000   1.2777   0.06854   0.06223   0.0105   0.0474   1.0000
