  
       XFOIL         Version 6.99
  
 Calculated polar for: NACA 4412                                       
  
 1 1 Reynolds number fixed          Mach number fixed         
  
 xtrf =   0.100 (top)        1.000 (bottom)  
 Mach =   0.000     Re =     1.500 e 6     Ncrit =   9.000
  
   alpha    CL        CD       CDp       CM     Top_Xtr  Bot_Xtr
  ------ -------- --------- --------- -------- -------- --------
 -10.000  -0.6631   0.01558   0.00868  -0.0992   0.1000   0.0169
  -9.000  -0.5583   0.01399   0.00679  -0.0987   0.1000   0.0189
  -8.000  -0.4497   0.01297   0.00554  -0.0984   0.1000   0.0214
  -7.000  -0.3397   0.01214   0.00452  -0.0982   0.1000   0.0247
  -6.000  -0.2290   0.01135   0.00358  -0.0980   0.1000   0.0304
  -5.000  -0.1173   0.01082   0.00295  -0.0980   0.1000   0.0388
  -4.000  -0.0050   0.01041   0.00249  -0.0980   0.1000   0.0528
  -3.000   0.1074   0.01012   0.00219  -0.0981   0.1000   0.0778
  -2.000   0.2198   0.00990   0.00204  -0.0982   0.1000   0.1227
  -1.000   0.3320   0.00976   0.00202  -0.0983   0.1000   0.1919
   0.000   0.4438   0.00964   0.00213  -0.0984   0.1000   0.2987
   1.000   0.5536   0.00912   0.00237  -0.0984   0.1000   0.6104
   2.000   0.6654   0.00863   0.00274  -0.0982   0.1000   1.0000
   3.000   0.7742   0.00907   0.00307  -0.0977   0.1000   1.0000
   4.000   0.8826   0.00956   0.00349  -0.0971   0.1000   1.0000
   5.000   0.9899   0.01009   0.00399  -0.0965   0.1000   1.0000
   6.000   1.0958   0.01069   0.00459  -0.0957   0.1000   1.0000
   7.000   1.1996   0.01134   0.00530  -0.0946   0.1000   1.0000
   8.000   1.3008   0.01207   0.00612  -0.0931   0.1000   1.0000
   9.000   1.3869   0.01364   0.00755  -0.0892   0.0671   1.0000
  10.000   1.4567   0.01558   0.00937  -0.0826   0.0405   1.0000
  11.000   1.5195   0.01777   0.01157  -0.0754   0.0288   1.0000
  12.000   1.5777   0.02041   0.01429  -0.0687   0.0230   1.0000
  13.000   1.6261   0.02398   0.01800  -0.0620   0.0189   1.0000
  14.000   1.6626   0.02893   0.02312  -0.0557   0.0162   1.0000
  15.000   1.6902   0.03531   0.02972  -0.0507   0.0144   1.0000
