  
       XFOIL         Version 6.99
  
 Calculated polar for: NACA 4412                                       
  
 1 1 Reynolds number fixed          Mach number fixed         
  
 xtrf =   0.050 (top)        1.000 (bottom)  
 Mach =   0.000     Re =     1.500 e 6     Ncrit =   9.000
  
   alpha    CL        CD       CDp       CM     Top_Xtr  Bot_Xtr
  ------ -------- --------- --------- -------- -------- --------
 -10.000  -0.6632   0.01559   0.00868  -0.0992   0.0500   0.0169
  -9.000  -0.5583   0.01400   0.00679  -0.0986   0.0500   0.0189
  -8.000  -0.4498   0.01300   0.00554  -0.0983   0.0500   0.0214
  -7.000  -0.3399   0.01217   0.00452  -0.0981   0.0500   0.0247
  -6.000  -0.2293   0.01139   0.00358  -0.0980   0.0500   0.0304
  -5.000  -0.1177   0.01088   0.00296  -0.0979   0.0500   0.0387
  -4.000  -0.0057   0.01050   0.00250  -0.0979   0.0500   0.0527
  -3.000   0.1065   0.01023   0.00221  -0.0979   0.0500   0.0776
  -2.000   0.2186   0.01004   0.00208  -0.0980   0.0500   0.1224
   0.000   0.4418   0.00987   0.00222  -0.0980   0.0500   0.2973
   1.000   0.5510   0.00942   0.00250  -0.0980   0.0500   0.6058
   2.000   0.6618   0.00897   0.00290  -0.0976   0.0500   1.0000
   3.000   0.7697   0.00949   0.00328  -0.0969   0.0500   1.0000
   4.000   0.8770   0.01006   0.00376  -0.0962   0.0500   1.0000
   5.000   0.9830   0.01069   0.00432  -0.0954   0.0500   1.0000
   6.000   1.0871   0.01139   0.00500  -0.0943   0.0500   1.0000
   7.000   1.1886   0.01218   0.00579  -0.0928   0.0500   1.0000
   8.000   1.2868   0.01306   0.00672  -0.0908   0.0500   1.0000
   9.000   1.3802   0.01407   0.00782  -0.0881   0.0500   1.0000
  10.000   1.4567   0.01558   0.00937  -0.0826   0.0405   1.0000
  11.000   1.5195   0.01777   0.01157  -0.0754   0.0288   1.0000
  12.000   1.5777   0.02041   0.01429  -0.0687   0.0230   1.0000
  13.000   1.6261   0.02398   0.01800  -0.0620   0.0189   1.0000
  14.000   1.6626   0.02893   0.02312  -0.0557   0.0162   1.0000
  15.000   1.6902   0.03531   0.02972  -0.0507   0.0144   1.0000
