  
       XFOIL         Version 6.99
  
 Calculated polar for: NACA 4412                                       
  
 1 1 Reynolds number fixed          Mach number fixed         
  
 xtrf =   0.100 (top)        1.000 (bottom)  
 Mach =   0.000     Re =     0.150 e 6     Ncrit =   9.000
  
   alpha    CL        CD       CDp       CM     Top_Xtr  Bot_Xtr
  ------ -------- --------- --------- -------- -------- --------
 -10.000  -0.2328   0.10104   0.09384  -0.0633   0.1000   0.0853
  -9.000  -0.2877   0.09589   0.08835  -0.0571   0.1000   0.0878
  -8.000  -0.2909   0.08084   0.07343  -0.0699   0.1000   0.0996
  -7.000  -0.2638   0.06352   0.05591  -0.0854   0.1000   0.1138
  -6.000  -0.2071   0.04974   0.04170  -0.0912   0.1000   0.1309
  -5.000  -0.1292   0.02329   0.01175  -0.0963   0.1000   0.0873
  -4.000  -0.0237   0.02035   0.00831  -0.0951   0.1000   0.1133
  -3.000   0.0820   0.01832   0.00625  -0.0940   0.1000   0.1620
  -2.000   0.1875   0.01700   0.00514  -0.0930   0.1000   0.2608
  -1.000   0.2855   0.01516   0.00467  -0.0905   0.1000   0.5955
   0.000   0.4091   0.01468   0.00449  -0.0914   0.1000   1.0000
   1.000   0.5115   0.01521   0.00456  -0.0897   0.1000   1.0000
   2.000   0.6140   0.01585   0.00490  -0.0882   0.1000   1.0000
   3.000   0.7156   0.01660   0.00549  -0.0865   0.1000   1.0000
   4.000   0.8154   0.01746   0.00631  -0.0846   0.1000   1.0000
   5.000   0.9125   0.01846   0.00737  -0.0824   0.1000   1.0000
   6.000   1.0058   0.01962   0.00869  -0.0796   0.1000   1.0000
   7.000   1.0939   0.02097   0.01030  -0.0761   0.1000   1.0000
   8.000   1.1726   0.02257   0.01227  -0.0712   0.1000   1.0000
   9.000   1.2438   0.02461   0.01477  -0.0657   0.1000   1.0000
  10.000   1.3064   0.02734   0.01807  -0.0598   0.1000   1.0000
  11.000   1.3505   0.03164   0.02309  -0.0529   0.1000   1.0000
  12.000   1.3467   0.04071   0.03243  -0.0437   0.0885   1.0000
  13.000   1.3619   0.04926   0.04117  -0.0379   0.0700   1.0000
  14.000   1.3915   0.05713   0.04918  -0.0332   0.0582   1.0000
  15.000   1.4208   0.06589   0.05840  -0.0294   0.0502   1.0000
