  
       XFOIL         Version 6.99
  
 Calculated polar for: NACA 4412                                       
  
 1 1 Reynolds number fixed          Mach number fixed         
  
 xtrf =   0.200 (top)        1.000 (bottom)  
 Mach =   0.000     Re =     1.500 e 6     Ncrit =   9.000
  
   alpha    CL        CD       CDp       CM     Top_Xtr  Bot_Xtr
  ------ -------- --------- --------- -------- -------- --------
 -10.000  -0.6625   0.01548   0.00868  -0.0993   0.2000   0.0169
  -9.000  -0.5575   0.01386   0.00679  -0.0988   0.2000   0.0189
  -8.000  -0.4486   0.01281   0.00551  -0.0985   0.2000   0.0214
  -7.000  -0.3383   0.01195   0.00449  -0.0984   0.2000   0.0247
  -6.000  -0.2273   0.01111   0.00353  -0.0983   0.2000   0.0305
  -5.000  -0.1151   0.01054   0.00288  -0.0984   0.2000   0.0389
  -4.000  -0.0024   0.01008   0.00239  -0.0985   0.2000   0.0530
  -3.000   0.1106   0.00973   0.00206  -0.0986   0.2000   0.0784
  -2.000   0.2237   0.00944   0.00188  -0.0988   0.2000   0.1238
  -1.000   0.3368   0.00923   0.00182  -0.0990   0.2000   0.1941
   0.000   0.4495   0.00903   0.00188  -0.0993   0.2000   0.3022
   1.000   0.5602   0.00840   0.00208  -0.0995   0.2000   0.6211
   2.000   0.6740   0.00784   0.00238  -0.0996   0.2000   1.0000
   3.000   0.7841   0.00817   0.00264  -0.0993   0.2000   1.0000
   4.000   0.8942   0.00854   0.00298  -0.0990   0.2000   1.0000
   5.000   1.0036   0.00894   0.00340  -0.0987   0.2000   1.0000
   6.000   1.1119   0.00938   0.00391  -0.0982   0.2000   1.0000
   7.000   1.2187   0.00987   0.00450  -0.0976   0.2000   1.0000
   8.000   1.3093   0.01146   0.00577  -0.0944   0.1341   1.0000
   9.000   1.3869   0.01364   0.00755  -0.0892   0.0671   1.0000
  10.000   1.4567   0.01558   0.00937  -0.0826   0.0405   1.0000
  11.000   1.5195   0.01777   0.01157  -0.0754   0.0288   1.0000
  12.000   1.5777   0.02041   0.01429  -0.0687   0.0230   1.0000
  13.000   1.6261   0.02398   0.01800  -0.0620   0.0189   1.0000
  14.000   1.6626   0.02893   0.02312  -0.0557   0.0162   1.0000
  15.000   1.6902   0.03531   0.02972  -0.0507   0.0144   1.0000
